In line no 1, Inserting i with type INT_TYPE in symbol table.
bug 1 
bug 10 
Parsing finished!
============= INTERMEDIATE CODE===============
  0: start              -1
  1: print_int_value     0
  2: halt               -1
============= ASM CODE===============

;start -1
.686
.model flat, c
include C:\masm32\include\msvcrt.inc
includelib C:\masm32\lib\msvcrt.lib

.stack 100h
printf PROTO arg1:Ptr Byte, printlist:VARARG
scanf PROTO arg2:Ptr Byte, inputlist:VARARG

.data
output_integer_msg_format byte "%d", 0Ah, 0
output_string_msg_format byte "%s", 0Ah, 0
input_integer_format byte "%d",0

number sdword ?

.code

main proc
	push ebp
	mov ebp, esp
	sub ebp, 100
	mov ebx, ebp
	add ebx, 4

;print_int_value 0
	push eax
	push ebx
	push ecx
	push edx
	push [ebp-0]
	push ebp
	mov eax, [ebp-0]
	INVOKE printf, ADDR output_integer_msg_format, eax
	pop ebp
	pop [ebp-0]
	pop edx
	pop ecx
	pop ebx
	pop eax

;halt -1
	add ebp, 100
	mov esp, ebp
	pop ebp
	ret
main endp
end
